/*--------------------------------*- C++ -*----------------------------------*\
| =========                 |                                                 |
| \\      /  F ield         | OpenFOAM: The Open Source CFD Toolbox           |
|  \\    /   O peration     | Version:  2406                                  |
|   \\  /    A nd           | Website:  www.openfoam.com                      |
|    \\/     M anipulation  |                                                 |
\*---------------------------------------------------------------------------*/
FoamFile
{
    version     2.0;
    format      ascii;
    arch        "LSB;label=32;scalar=64";
    class       polyBoundaryMesh;
    location    "constant/polyMesh";
    object      boundary;
}
// * * * * * * * * * * * * * * * * * * * * * * * * * * * * * * * * * * * * * //

4
(
    inlet
    {
        type            patch;
        nFaces          70;
        startFace       13830;
    }
    outlet
    {
        type            patch;
        nFaces          70;
        startFace       13900;
    }
    walls
    {
        type            wall;
        inGroups        1(wall);
        nFaces          200;
        startFace       13970;
    }
    frontAndBack
    {
        type            empty;
        inGroups        1(empty);
        nFaces          14000;
        startFace       14170;
    }
)

// ************************************************************************* //
